          19
Ag 10       -2.387629        0.000000       -2.387629   0.10000
Ag     -1.20786870     -2.43090415     -0.29102558
Ag     -1.90583539     -0.38841295     -2.14495158
Ag     -3.63857317     -1.13477278     -0.23193137
Ag     -1.96494782     -0.62922090      1.80667269
Ag     -2.42985988      1.36454976     -0.06009240
Ag      0.46893156     -1.64411473     -2.49116898
Ag      1.65555000     -2.50829053     -0.24766155
Ag      0.38042909     -1.97544432      2.06938624
Ag      3.09537029     -1.87866437      1.97783434
Ag     -0.20862098      0.40822607     -4.13537741
Ag     -0.54637527      2.04524159     -1.97368526
Ag      1.80025494      0.75153720     -2.33809352
Ag      0.11329977     -0.05643551     -0.10474081
Ag     -0.59749377      1.80372250      1.97253585
Ag      1.76131201      0.47589889      2.23313928
Ag      1.45317531      2.31144357      0.03837688
Ag     -0.29393634     -0.10135996      3.91458201
Ag     -0.92659777      3.70277572      0.10424164
Ag      2.99178410     -0.11577740     -0.09804470
