          13
Ag 10       -2.301550        0.000000       -2.301550   0.11111
Ag     -0.78795612     -2.02659345     -0.58213997
Ag     -1.09631336      0.67342609     -0.03199749
Ag     -1.96525693     -1.15939701      1.76436317
Ag     -1.21440983      2.66177917      1.80083263
Ag     -1.24321747     -0.18944114     -2.59713984
Ag      1.70411289     -3.11299896     -0.41060749
Ag      1.17253768     -1.35913134     -2.41077948
Ag     -0.78060335      3.24404740     -0.81762040
Ag      0.87852806      1.35380495     -1.88573372
Ag      1.48157966     -0.43340310      0.14996716
Ag      0.16051939      0.39057091      2.44726515
Ag      0.46361127     -2.31117821      1.86513567
Ag      1.22686148      2.26851010      0.70845532
