          55
Ag 10       -2.588207        0.000000       -2.588207   0.38462
Ag     -3.68040657     -2.10256386     -2.05269217
Ag     -1.99575531     -4.17082739     -0.89576656
Ag     -1.26952827     -2.95297146     -3.44381118
Ag     -4.31973267     -3.25059319      0.48315591
Ag     -3.61816216     -1.49194443      2.62046742
Ag     -1.95545101     -3.79357004      1.98975778
Ag     -2.17649150     -1.63721573      0.24322914
Ag     -1.16792393     -1.96911275      4.11687708
Ag     -2.90159464     -0.86546493     -4.50560141
Ag     -3.96408176      0.77358645     -2.42207384
Ag     -1.46261358     -0.43548986     -2.27050209
Ag     -1.72810698      1.69659555     -4.03981543
Ag     -4.68775463     -0.44520301      0.12022889
Ag     -3.90193677      1.37794435      2.24942851
Ag     -1.39909947      0.16524304      2.34379053
Ag     -2.45507360      1.19975185     -0.12258026
Ag     -2.77343297      0.32770655      4.65439367
Ag     -1.62129414      2.67852259      3.51662374
Ag     -2.73220968      3.35140228     -1.86543679
Ag     -4.87179661      2.38079381     -0.24177632
Ag     -2.69417405      3.72453928      1.02434635
Ag      0.40618044     -4.92711401     -2.23936701
Ag      0.20322435     -2.48150778     -1.12988973
Ag      2.69060183     -3.72712541     -1.01993382
Ag      1.62465119     -2.68016458     -3.51544189
Ag      0.45521009     -4.64679432      0.60071546
Ag      0.24393347     -2.10876274      1.72242796
Ag      2.73183441     -3.35017133      1.86783659
Ag      2.45239425     -1.20074046      0.12193711
Ag      0.48600480     -4.18777895      3.41770506
Ag      1.73083520     -1.69534504      4.03960896
Ag     -0.06368377     -0.60660356     -4.67170429
Ag     -0.24499089      2.11154771     -1.72200108
Ag      1.39750779     -0.16520055     -2.34485769
Ag      1.17049766      1.97149205     -4.11429453
Ag     -0.00152774      0.00018749     -0.00079126
Ag     -0.20573357      2.48228216      1.12812352
Ag      1.46307349      0.43613392      2.26787853
Ag      2.17552876      1.63805234     -0.24417898
Ag      0.06689125      0.60698593      4.66899014
Ag      1.27373779      2.95377636      3.43827415
Ag     -0.48446482      4.19021273     -3.41636324
Ag      1.95418990      3.79766870     -1.98598695
Ag     -0.45849779      4.64981031     -0.59812295
Ag      1.99579167      4.17047358      0.89653671
Ag     -0.40718001      4.92617893      2.24099803
Ag      3.89933515     -1.38099134     -2.24897337
Ag      4.86939907     -2.38236642      0.24270438
Ag      3.96451211     -0.77454710      2.42111850
Ag      2.77556849     -0.32775092     -4.65288067
Ag      3.61750197      1.49139118     -2.61916280
Ag      4.68593121      0.44197673     -0.12218725
Ag      3.68446755      2.09933949      2.04951334
Ag      2.90360999      0.86552435      4.50273943
Ag      4.32027817      3.24880767     -0.48320824
