          71
Ag 10       -2.604977        0.000000       -2.604977   0.35484
Ag      0.03227507      0.01854435     -6.72185659
Ag      0.02017387      0.01201565     -4.03508186
Ag      0.00556337      0.00414770     -1.29745722
Ag     -0.00690359     -0.00346665      1.29743755
Ag     -0.01922672     -0.01199012      4.03507376
Ag     -0.03174083     -0.01807394      6.72179937
Ag      2.50063396      0.14821333     -5.28200245
Ag      2.44342422      0.13767031     -2.49740148
Ag      1.72519326      1.80634964      0.01034170
Ag      2.30296969      0.73943192      2.52287412
Ag      2.33319306      0.74498141      5.30717325
Ag      0.66466546      2.41054273     -5.28648901
Ag      0.64309329      2.35842848     -2.50298667
Ag     -1.18760085      2.19757533     -0.00275008
Ag     -0.00922082      2.42593193      2.51600790
Ag     -0.02132626      2.46398020      5.29978895
Ag     -2.05325794      1.36457586     -5.30184603
Ag     -2.02772450      1.33414721     -2.51879692
Ag     -2.45646715     -0.45507190     -0.00994777
Ag     -2.32559848      0.74756706      2.50351596
Ag     -2.38073754      0.75651515      5.28618717
Ag     -1.90126586     -1.54397321     -5.30684519
Ag     -1.87974572     -1.52249253     -2.52269554
Ag     -0.32440490     -2.47668576     -0.00545471
Ag     -1.44614446     -1.97427547      2.50049758
Ag     -1.48839259     -2.01584125      5.28381586
Ag      0.91437346     -2.29789948     -5.29579020
Ag      0.88480562     -2.26339102     -2.51137519
Ag      2.25297356     -1.07855797      0.00756623
Ag      1.41280985     -1.98123133      2.51118684
Ag      1.42483842     -2.02511764      5.29577541
Ag      4.86064386      0.28713232     -3.66825819
Ag      4.29743338      1.61604333     -1.15426600
Ag      3.84573674      2.84586930      1.38520670
Ag      4.60283470      1.45734322      3.71775961
Ag      3.12748146      2.53109336     -3.74549437
Ag      2.65945745      3.99288750     -1.33869624
Ag      1.38453662      4.35494614      1.19098794
Ag      2.33985472      3.21934843      3.78164840
Ag      1.25431240      4.70080137     -3.67644429
Ag     -0.20313916      4.57979536     -1.17105079
Ag     -1.52740753      4.54067659      1.36183333
Ag      0.01293151      4.83882284      3.70334673
Ag     -1.41664267      3.74724507     -3.76100063
Ag     -2.96976471      3.76063704     -1.36570096
Ag     -3.72158861      2.66668940      1.16582179
Ag     -2.36266804      3.23295283      3.75881052
Ag     -4.06059027      2.63278151     -3.70731831
Ag     -4.40583086      1.21913528     -1.19477773
Ag     -4.79960394     -0.04554123      1.33856082
Ag     -4.61938238      1.51799178      3.67693663
Ag     -3.97807550     -0.20079048     -3.78145480
Ag     -4.48554611     -1.66547620     -1.38301444
Ag     -3.69901824     -2.71390057      1.15789616
Ag     -3.82742429     -1.23928666      3.74274135
Ag     -3.73701143     -3.05787611     -3.71661329
Ag     -2.51464033     -3.81470895     -1.19487560
Ag     -1.44692338     -4.57317209      1.34333193
Ag     -2.89216018     -3.91696811      3.67196226
Ag     -1.01534331     -3.85207939     -3.77719808
Ag      0.20620531     -4.78333044     -1.37095356
Ag      1.43228316     -4.35592985      1.17442858
Ag     -0.02792635     -4.01329184      3.75611115
Ag      1.77596426     -4.50766897     -3.69540811
Ag      2.86123395     -3.57677913     -1.17249441
Ag      3.89323139     -2.78771544      1.37075579
Ag      2.80689263     -3.95380831      3.69535184
Ag      3.37373686     -2.16370153     -3.75334954
Ag      4.62097979     -1.28528202     -1.34127355
Ag      4.57237911      0.02028317      1.19813311
Ag      3.78132749     -1.25771260      3.77776551
